Version 4
SHEET 1 880 680
WIRE 128 112 64 112
WIRE 256 112 208 112
WIRE 368 112 256 112
WIRE 448 112 368 112
WIRE 256 128 256 112
WIRE 368 128 368 112
WIRE 64 144 64 112
WIRE 256 224 256 208
WIRE 368 224 368 208
WIRE 64 240 64 224
FLAG 256 224 0
FLAG 64 240 0
FLAG 448 112 OUT
IOPIN 448 112 Out
FLAG 368 224 0
SYMBOL res 224 96 R90
WINDOW 0 0 56 VBottom 2
WINDOW 3 32 56 VTop 2
SYMATTR InstName R1
SYMATTR Value 10k
SYMATTR SpiceLine pwr=1m
SYMBOL voltage 64 128 R0
WINDOW 3 23 97 Left 2
SYMATTR Value 1
SYMATTR Value2 AC 1 0
SYMATTR InstName V1
SYMBOL res 240 112 R0
SYMATTR InstName R2
SYMATTR Value 10k
SYMBOL res 352 112 R0
SYMATTR InstName R3
SYMATTR Value {Rx}
TEXT -192 224 Left 2 !.param Rx=10k
TEXT -192 272 Left 2 !.step param Rx 1 100k 1k
TEXT -184 168 Left 2 !.op
